Version 4
SHEET 1 880 680
WIRE 112 112 -96 112
WIRE 224 112 176 112
WIRE 288 112 224 112
WIRE -96 144 -96 112
WIRE 224 160 224 112
WIRE -96 256 -96 224
WIRE 224 272 224 240
FLAG 224 272 0
FLAG -96 256 0
SYMBOL cap 176 96 R90
WINDOW 0 0 32 VBottom 2
WINDOW 3 32 32 VTop 2
SYMATTR InstName C1
SYMATTR Value 33p
SYMBOL res 208 144 R0
SYMATTR InstName R1
SYMATTR Value 33k
SYMBOL voltage -96 128 R0
WINDOW 3 24 72 Left 2
WINDOW 123 24 100 Left 2
WINDOW 39 0 0 Left 0
SYMATTR InstName V1
SYMATTR Value SINE(5 10 50)
SYMATTR Value2 AC 1
TEXT -2 296 Left 2 !;tran 1
TEXT -4 316 Left 2 !.ac dec 300 1 10000k
